         288
   13.0714      0.0000     -0.0000      0.0000     17.2140      0.0000     -0.0000      0.0000     13.0714
 O       2.159851809    2.133551615    2.159851809
 O       2.156200621   -0.011615831   -0.008941592
 O      -0.010469510    2.114048971   -0.010469510
 O      -0.008941592   -0.011615831    2.156200621
 O       2.117297685    2.089617977    6.542791419
 O       2.113942313   -0.029271731    4.342928068
 O      -0.038949795    2.084265625    4.340886747
 O      -0.019050246   -0.021832669    6.550690717
 O       2.153933212    2.118727714   10.897104548
 O       2.157636410   -0.011162771    8.735186343
 O      -0.004281779    2.118727718    8.738889540
 O      -0.007603822   -0.013816508   10.900426563
 O       2.115105384    6.450788450    2.115105384
 O       2.105872484    4.264888883   -0.037000537
 O      -0.022652794    6.439513401   -0.022652794
 O      -0.037000538    4.264888883    2.105872484
 O       1.778491810    6.449622410    6.490474296
 O       1.830907777    4.279034393    4.365779882
 O      -0.092686360    6.426108805    4.271520377
 O      -0.070714523    4.228253233    6.599022471
 O       2.091886843    6.440202001   10.940198905
 O       2.123655724    4.298586366    8.769167071
 O      -0.047376075    6.440202002    8.800935926
 O      -0.019491654    4.263749097   10.912314426
 O       2.123655768   10.763705358    2.123655768
 O       2.091886864    8.622089720   -0.047376065
 O      -0.019491634   10.798542628   -0.019491634
 O      -0.047376065    8.622089720    2.091886864
 O       1.830907813   10.783257266    6.527042837
 O       1.778491814    8.612669208    4.402348437
 O      -0.070714518   10.834038498    4.293800311
 O      -0.092686357    8.636182892    6.621302393
 O       2.105872494   10.797402839   10.929823338
 O       2.115105373    8.611503251    8.777717441
 O      -0.037000531   10.797402834    8.786950275
 O      -0.022652801    8.622778326   10.915475592
 O       2.157636421   15.073454536    2.157636422
 O       2.153933242   12.943564011   -0.004281758
 O      -0.007603809   15.076108213   -0.007603809
 O      -0.004281758   12.943564011    2.153933242
 O       2.113942324   15.091563570    6.549894684
 O       2.117297730   12.972673820    4.350031354
 O      -0.019050231   15.084124429    4.342132049
 O      -0.038949779   12.978026121    6.551936006
 O       2.156200625   15.073907555   10.901764347
 O       2.159851847   12.928740130    8.732970931
 O      -0.008941592   15.073907552    8.736622128
 O      -0.010469508   12.948242738   10.903292265
 O       6.542791419    2.089617975    2.117297686
 O       6.550690717   -0.021832670   -0.019050244
 O       4.340886748    2.084265625   -0.038949793
 O       4.342928068   -0.029271732    2.113942314
 O       6.533575837    1.840847868    6.533575837
 O       6.593664056   -0.095729983    4.299158696
 O       4.359246880    1.840847812    4.359246880
 O       4.299158695   -0.095729981    6.593664057
 O       6.551936006    2.084265637   10.931772574
 O       6.549894678   -0.029271716    8.778880431
 O       4.350031326    2.089617984    8.775525098
 O       4.342132036   -0.021832668   10.911873004
 O       6.490474295    6.449622411    1.778491812
 O       6.599022471    4.228253233   -0.070714521
 O       4.271520377    6.426108805   -0.092686359
 O       4.365779882    4.279034393    1.830907779
 O       6.621302380    6.426108814   10.985509205
 O       6.527042811    4.279034434    9.061915054
 O       4.402348379    6.449622415    9.114331034
 O       4.293800283    4.228253235   10.963537355
 O       6.527042834   10.783257266    1.830907813
 O       6.621302393    8.636182892   -0.092686356
 O       4.293800310   10.834038497   -0.070714519
 O       4.402348434    8.612669208    1.778491815
 O       6.599022456   10.834038489   10.963537352
 O       6.490474225    8.612669187    9.114331041
 O       4.365779897   10.783257260    9.061915036
 O       4.271520365    8.636182893   10.985509217
 O       6.549894683   15.091563568    2.113942326
 O       6.551936006   12.978026120   -0.038949778
 O       4.342132048   15.084124429   -0.019050230
 O       4.350031353   12.972673819    2.117297731
 O       6.593664065   15.158021988    6.593664066
 O       6.533575762   13.221444177    4.359246951
 O       4.299158679   15.158021984    4.299158680
 O       4.359246948   13.221444180    6.533575764
 O       6.550690706   15.084124432   10.911872994
 O       6.542791385   12.972673808    8.775525055
 O       4.342928074   15.091563569    8.778880434
 O       4.340886755   12.978026126   10.931772575
 O      10.897104548    2.118727713    2.153933214
 O      10.900426563   -0.013816509   -0.007603820
 O       8.738889540    2.118727717   -0.004281777
 O       8.735186342   -0.011162773    2.157636411
 O      10.931772572    2.084265636    6.551936008
 O      10.911873003   -0.021832669    4.342132038
 O       8.775525097    2.089617983    4.350031326
 O       8.778880430   -0.029271716    6.549894680
 O      10.903292260    2.114048984   10.903292262
 O      10.901764335   -0.011615821    8.736622123
 O       8.732970943    2.133551654    8.732970945
 O       8.736622121   -0.011615821   10.901764337
 O      10.940198905    6.440202001    2.091886845
 O      10.912314427    4.263749096   -0.019491652
 O       8.800935926    6.440202002   -0.047376072
 O       8.769167071    4.298586366    2.123655726
 O      10.985509203    6.426108814    6.621302382
 O      10.963537353    4.228253234    4.293800285
 O       9.114331034    6.449622416    4.402348380
 O       9.061915051    4.279034433    6.527042812
 O      10.915475581    6.439513411   10.915475584
 O      10.929823332    4.264888903    8.786950282
 O       8.777717425    6.450788472    8.777717427
 O       8.786950279    4.264888903   10.929823335
 O      10.929823339   10.797402839    2.105872496
 O      10.915475592    8.622778326   -0.022652798
 O       8.786950275   10.797402834   -0.037000530
 O       8.777717441    8.611503251    2.115105375
 O      10.963537352   10.834038489    6.599022459
 O      10.985509217    8.636182894    4.271520367
 O       9.061915037   10.783257261    4.365779902
 O       9.114331040    8.612669186    6.490474227
 O      10.912314411   10.798542624   10.912314413
 O      10.940198892    8.622089717    8.800935915
 O       8.769167027   10.763705321    8.769167028
 O       8.800935913    8.622089718   10.940198894
 O      10.901764347   15.073907554    2.156200628
 O      10.903292265   12.948242737   -0.010469505
 O       8.736622127   15.073907551   -0.008941590
 O       8.732970931   12.928740128    2.159851849
 O      10.911872992   15.084124432    6.550690708
 O      10.931772575   12.978026125    4.340886758
 O       8.778880433   15.091563567    4.342928077
 O       8.775525054   12.972673807    6.542791388
 O      10.900426552   15.076108216   10.900426555
 O      10.897104523   12.943564004    8.738889514
 O       8.735186322   15.073454532    8.735186324
 O       8.738889511   12.943564004   10.897104525
Ag       3.918800195    3.947091766    3.918800197
Ag       6.338037090    6.306728694    6.338037092
Ag       3.813011802    6.527465461    7.079810997
Ag       6.974022697    3.947091803    6.974022700
Ag       7.079810996    6.527465457    3.813011804
Ag       6.380474547    4.252738016    4.512348353
Ag       4.554785754    6.306728639    4.554785754
Ag       4.512348349    4.252738019    6.380474549
Ag       3.813011861    8.534826774    3.813011863
Ag       6.380474532   10.809554164    6.380474531
Ag       3.918800136   11.115200382    6.974022714
Ag       7.079811094    8.534826779    7.079811095
Ag       6.974022716   11.115200378    3.918800134
Ag       6.338037137    8.755563562    4.554785802
Ag       4.512348352   10.809554183    4.512348350
Ag       4.554785801    8.755563565    6.338037138
Mg      -0.008365819   -0.013158272   -0.008365819
Mg      -0.015388575    2.113740419    2.152339137
Mg       2.153195719   -0.010011029    2.153195719
Mg       2.152339137    2.113740420   -0.015388574
Mg      -0.024210226   -0.022885422    4.339531898
Mg      -0.026851121    2.087846724    6.555163614
Mg       2.114078720   -0.031433102    6.555399198
Mg       2.085324040    2.071078010    4.370831546
Mg      -0.004654894   -0.010697882    8.738648085
Mg      -0.006195151    2.110972136   10.899017906
Mg       2.154174663   -0.010697882   10.897477645
Mg       2.175648072    2.137236459    8.717174694
Mg      -0.027186917    4.256109248   -0.027186917
Mg      -0.034165606    6.434058727    2.109370735
Mg       2.071725986    4.289930173    2.071725986
Mg       2.109370735    6.434058727   -0.034165606
Mg      -0.114603156    4.233483185    4.294126421
Mg      -0.133617420    6.441203074    6.612516508
Mg       1.935532066    4.283769024    6.520147082
Mg       1.904644150    6.421605447    4.370094783
Mg      -0.025401915    4.255477255    8.775137800
Mg      -0.037916912    6.436762396   10.930739702
Mg       2.117684962    4.255477251   10.918224723
Mg       2.016123299    6.442339998    8.876699541
Mg      -0.037916896    8.625529311   -0.037916896
Mg      -0.025401903   10.806814458    2.117684985
Mg       2.016123306    8.619951647    2.016123306
Mg       2.117684985   10.806814458   -0.025401904
Mg      -0.133617419    8.621088598    4.280306266
Mg      -0.114603138   10.828808527    6.598696345
Mg       1.904644144    8.640686225    6.522727955
Mg       1.935532048   10.778522681    4.372675693
Mg      -0.034165604    8.628232960    8.783452048
Mg      -0.027186920   10.806182462   10.920009701
Mg       2.109370724    8.628232963   10.926988439
Mg       2.071725986   10.772361506    8.821096816
Mg      -0.006195135   12.951319582   -0.006195135
Mg      -0.004654882   15.072989628    2.154174673
Mg       2.175648091   12.925055302    2.175648091
Mg       2.154174672   15.072989629   -0.004654881
Mg      -0.026851113   12.974445032    4.337659146
Mg      -0.024210233   15.085177210    6.553290862
Mg       2.085324007   12.991213846    6.521991175
Mg       2.114078719   15.093724966    4.337423552
Mg      -0.015388570   12.948551306    8.740483621
Mg      -0.008365823   15.075449993   10.901188571
Mg       2.152339138   12.948551309   10.908211350
Mg       2.153195720   15.072302817    8.739627038
Mg       4.339531898   -0.022885422   -0.024210225
Mg       4.370831546    2.071078010    2.085324041
Mg       6.555399198   -0.031433104    2.114078721
Mg       6.555163614    2.087846723   -0.026851119
Mg       4.290978479   -0.097392993    4.290978479
Mg       4.359006781    1.850651129    6.533815925
Mg       6.601844259   -0.097392963    6.601844259
Mg       6.533815926    1.850651128    4.359006779
Mg       4.337423552   -0.031433095    8.778744032
Mg       4.337659136    2.087846724   10.919673908
Mg       6.553290852   -0.022885416   10.917032984
Mg       6.521991176    2.071078029    8.807498734
Mg       4.294126421    4.233483184   -0.114603154
Mg       4.370094783    6.421605447    1.904644151
Mg       6.520147081    4.283769024    1.935532070
Mg       6.612516508    6.441203074   -0.133617418
Mg       4.372675633    4.283769030    8.957290778
Mg       4.280306256    6.441203077   11.026440272
Mg       6.598696330    4.233483194   11.007425981
Mg       6.522727922    6.421605462    8.988178698
Mg       4.280306266    8.621088597   -0.133617419
Mg       4.372675690   10.778522680    1.935532047
Mg       6.522727953    8.640686226    1.904644145
Mg       6.598696344   10.828808527   -0.114603138
Mg       4.370094747    8.640686220    8.988178724
Mg       4.294126413   10.828808528   11.007425979
Mg       6.612516491    8.621088601   11.026440271
Mg       6.520147036   10.778522658    8.957290798
Mg       4.337659145   12.974445032   -0.026851112
Mg       4.337423552   15.093724965    2.114078720
Mg       6.521991173   12.991213844    2.085324008
Mg       6.553290862   15.085177209   -0.024210232
Mg       4.359006790   13.211640943    4.359006794
Mg       4.290978472   15.159684977    6.601844279
Mg       6.533815906   13.211640944    6.533815910
Mg       6.601844277   15.159684975    4.290978474
Mg       4.370831581   12.991213854    8.807498802
Mg       4.339531895   15.085177215   10.917033002
Mg       6.555163614   12.974445032   10.919673904
Mg       6.555399200   15.093724963    8.778744032
Mg       8.738648085   -0.010697883   -0.004654892
Mg       8.717174694    2.137236458    2.175648073
Mg      10.897477644   -0.010697883    2.154174665
Mg      10.899017906    2.110972135   -0.006195148
Mg       8.778744031   -0.031433097    4.337423554
Mg       8.807498732    2.071078029    6.521991177
Mg      10.917032982   -0.022885416    6.553290854
Mg      10.919673906    2.087846724    4.337659138
Mg       8.739627022   -0.010011012    8.739627024
Mg       8.740483612    2.113740433   10.908211341
Mg      10.901188560   -0.013158265   10.901188562
Mg      10.908211338    2.113740433    8.740483614
Mg       8.775137800    4.255477255   -0.025401912
Mg       8.876699541    6.442339998    2.016123302
Mg      10.918224723    4.255477251    2.117684964
Mg      10.930739702    6.436762396   -0.037916909
Mg       8.957290776    4.283769029    4.372675634
Mg       8.988178696    6.421605461    6.522727923
Mg      11.007425978    4.233483193    6.598696332
Mg      11.026440271    6.441203077    4.280306259
Mg       8.821096831    4.289930218    8.821096833
Mg       8.783452037    6.434058734   10.926988427
Mg      10.920009699    4.256109258   10.920009702
Mg      10.926988425    6.434058734    8.783452039
Mg       8.783452048    8.628232960   -0.034165602
Mg       8.821096817   10.772361505    2.071725987
Mg      10.926988439    8.628232963    2.109370726
Mg      10.920009701   10.806182462   -0.027186918
Mg       8.988178723    8.640686220    4.370094748
Mg       8.957290798   10.778522658    6.520147039
Mg      11.026440270    8.621088600    6.612516494
Mg      11.007425980   10.828808528    4.294126416
Mg       8.876699566    8.619951638    8.876699568
Mg       8.775137785   10.806814460   10.918224708
Mg      10.930739704    8.625529315   10.930739707
Mg      10.918224707   10.806814460    8.775137787
Mg       8.740483620   12.948551305   -0.015388569
Mg       8.739627037   15.072302816    2.153195723
Mg      10.908211350   12.948551309    2.152339141
Mg      10.901188571   15.075449992   -0.008365821
Mg       8.807498801   12.991213853    4.370831584
Mg       8.778744031   15.093724962    6.555399202
Mg      10.919673903   12.974445032    6.555163617
Mg      10.917033001   15.085177214    4.339531898
Mg       8.717174650   12.925055276    8.717174652
Mg       8.738648075   15.072989627   10.897477631
Mg      10.899017889   12.951319583   10.899017892
Mg      10.897477629   15.072989627    8.738648078
