         360
   13.0974      0.0427     -0.0000      0.0427     13.0974     -0.0000     -0.0000     -0.0000     21.4540
 O       6.548521702    6.548521702    2.091757538
 O       6.542753565    4.372504245   -0.030601060
 O       4.372504245    6.542753565   -0.030601060
 O       4.367111108    4.367111108    2.084075065
 O       6.491689111    6.491689111    6.404096151
 O       6.479309624    4.336297683    4.226388760
 O       4.336297682    6.479309624    4.226388760
 O       4.351734804    4.351734804    6.395562755
 O       6.491667827    6.491667827   10.758693374
 O       6.452490007    4.324461176    8.581418499
 O       4.324461176    6.452490007    8.581418499
 O       4.351739171    4.351739171   10.767347450
 O       6.548552498    6.548552498   15.071419902
 O       6.479313874    4.336302094   12.936588452
 O       4.336302095    6.479313874   12.936588452
 O       4.367116807    4.367116807   15.078935292
 O       6.547250315    6.547250314   19.308629343
 O       6.542753477    4.372494449   17.193699747
 O       4.372494449    6.542753477   17.193699747
 O       4.370473961    4.370473961   19.308549500
 O       6.559618568   10.927447021    2.073109726
 O       6.523131232    8.737738465   -0.060899375
 O       4.396601815   10.937997629   -0.041616581
 O       4.350491117    8.729900915    2.050672827
 O       6.185038584   10.797792335    6.422345093
 O       6.210701588    8.700940946    4.227099947
 O       4.341912632   10.984776415    4.194247809
 O       4.290427421    8.638950201    6.385927568
 O       6.185008097   10.797379176   10.740276393
 O       6.154553167    8.676615528    8.581075024
 O       4.323322077   11.009354119    8.581422698
 O       4.290442578    8.638880319   10.776881854
 O       6.559599650   10.927391698   15.090230834
 O       6.210681766    8.700845338   12.935790642
 O       4.341931185   10.984747285   12.968736338
 O       4.350479537    8.729910831   15.112456735
 O       6.540456651   10.940971626   19.308743984
 O       6.523064608    8.737733445   17.224317982
 O       4.396591246   10.937994709   17.204825748
 O       4.367235162    8.733062152   19.308636490
 O       6.582791797   15.294169887    2.092936958
 O       6.583659617   13.125449641   -0.023785651
 O       4.412338470   15.296521836   -0.030410794
 O       4.415729502   13.126685571    2.093063974
 O       6.515949875   15.343352034    6.400439503
 O       6.545399259   13.165831008    4.279287137
 O       4.399965990   15.310387066    4.229377915
 O       4.368453439   13.194581881    6.400412984
 O       6.515971080   15.343407667   10.762449315
 O       6.514657774   13.197043138    8.581484806
 O       4.392420444   15.318668869    8.581465603
 O       4.368405470   13.194560331   10.762478561
 O       6.582817398   15.294162594   15.070101789
 O       6.545365739   13.165874131   12.883669003
 O       4.399966919   15.310388311   12.933568347
 O       4.415739434   13.126656412   15.069975285
 O       6.583641476   15.301056812   19.308579529
 O       6.583652702   13.125452157   17.186979226
 O       4.412338221   15.296517775   17.193440230
 O       4.407600409   13.125275063   19.308580030
 O      10.927447021    6.559618568    2.073109726
 O      10.937997629    4.396601816   -0.041616581
 O       8.737738465    6.523131232   -0.060899375
 O       8.729900915    4.350491117    2.050672827
 O      10.797792335    6.185038585    6.422345093
 O      10.984776415    4.341912632    4.194247809
 O       8.700940946    6.210701589    4.227099947
 O       8.638950201    4.290427421    6.385927568
 O      10.797379176    6.185008097   10.740276393
 O      11.009354119    4.323322077    8.581422698
 O       8.676615528    6.154553167    8.581075024
 O       8.638880319    4.290442578   10.776881854
 O      10.927391698    6.559599650   15.090230834
 O      10.984747286    4.341931185   12.968736338
 O       8.700845338    6.210681766   12.935790643
 O       8.729910831    4.350479537   15.112456735
 O      10.940971626    6.540456651   19.308743984
 O      10.937994709    4.396591246   17.204825748
 O       8.737733445    6.523064608   17.224317982
 O       8.733062152    4.367235162   19.308636490
 O      10.937541939   10.937541939    1.800254973
 O      10.983517672    8.725276652   -0.158290136
 O       8.725276652   10.983517672   -0.158290136
 O       8.768848377    8.768848377    1.797439717
 O      10.937278928   10.937278928   15.363866613
 O       8.769061966    8.769061966   15.366714057
 O      10.980780106   10.980780106   19.308889287
 O      10.983636754    8.725145452   17.322248856
 O       8.725145452   10.983636754   17.322248856
 O       8.727960410    8.727960410   19.308901128
 O      10.979346097   15.359674351    2.050882021
 O      10.971069412   13.185088691   -0.059882087
 O       8.771230890   15.312233331   -0.041436501
 O       8.781486734   13.149971552    2.073911193
 O      11.071283978   15.421744978    6.386003506
 O      11.007049870   13.501782854    4.227799790
 O       8.724881622   15.370262330    4.194367752
 O       8.910803804   13.527078452    6.422809713
 O      11.071350495   15.421738851   10.776797954
 O      11.033333846   13.558347130    8.581075722
 O       8.701526915   15.389314583    8.581420451
 O       8.911202550   13.527116064   10.739807104
 O      10.979330484   15.359691461   15.112237156
 O      11.007129707   13.501821877   12.935077396
 O       8.724906476   15.370260858   12.968610787
 O       8.781531975   13.149992549   15.089413471
 O      10.975983620   15.340922677   19.308629346
 O      10.971068524   13.185144524   17.223278916
 O       8.771230085   15.312241359   17.204639223
 O       8.768173078   13.168246944   19.308738767
 O      15.294169887    6.582791797    2.092936958
 O      15.296521836    4.412338470   -0.030410794
 O      13.125449641    6.583659617   -0.023785651
 O      13.126685571    4.415729502    2.093063974
 O      15.343352034    6.515949875    6.400439503
 O      15.310387066    4.399965990    4.229377915
 O      13.165831008    6.545399259    4.279287137
 O      13.194581881    4.368453439    6.400412984
 O      15.343407667    6.515971080   10.762449315
 O      15.318668869    4.392420444    8.581465604
 O      13.197043138    6.514657774    8.581484806
 O      13.194560331    4.368405470   10.762478561
 O      15.294162594    6.582817397   15.070101789
 O      15.310388311    4.399966919   12.933568347
 O      13.165874131    6.545365739   12.883669003
 O      13.126656412    4.415739434   15.069975285
 O      15.301056812    6.583641476   19.308579529
 O      15.296517775    4.412338221   17.193440230
 O      13.125452157    6.583652702   17.186979226
 O      13.125275063    4.407600409   19.308580030
 O      15.359674351   10.979346097    2.050882021
 O      15.312233331    8.771230890   -0.041436501
 O      13.185088690   10.971069412   -0.059882087
 O      13.149971552    8.781486734    2.073911193
 O      15.421744978   11.071283978    6.386003506
 O      15.370262330    8.724881622    4.194367752
 O      13.501782854   11.007049870    4.227799790
 O      13.527078452    8.910803804    6.422809713
 O      15.421738851   11.071350495   10.776797954
 O      15.389314583    8.701526915    8.581420451
 O      13.558347130   11.033333846    8.581075722
 O      13.527116064    8.911202549   10.739807104
 O      15.359691461   10.979330484   15.112237156
 O      15.370260858    8.724906476   12.968610787
 O      13.501821877   11.007129707   12.935077396
 O      13.149992549    8.781531975   15.089413471
 O      15.340922677   10.975983620   19.308629346
 O      15.312241359    8.771230085   17.204639223
 O      13.185144524   10.971068524   17.223278916
 O      13.168246944    8.768173078   19.308738767
 O      15.342236657   15.342236657    2.084266849
 O      15.336183018   13.166101479   -0.030311755
 O      13.166101479   15.336183018   -0.030311755
 O      13.160548376   13.160548376    2.092934211
 O      15.359075871   15.359075871    6.395583751
 O      15.374659649   13.230798722    4.226682248
 O      13.230798722   15.374659649    4.226682248
 O      13.219439120   13.219439120    6.404113272
 O      15.359073172   15.359073172   10.767315957
 O      15.387291332   13.258540187    8.581415743
 O      13.258540187   15.387291332    8.581415743
 O      13.219462510   13.219462510   10.758673820
 O      15.342228121   15.342228121   15.078729908
 O      15.374662422   13.230794413   12.936283518
 O      13.230794413   15.374662422   12.936283518
 O      13.160511017   13.160511017   15.070224998
 O      15.338109273   15.338109273   19.308542263
 O      15.336187323   13.166096336   17.193395908
 O      13.166096336   15.336187323   17.193395908
 O      13.161209218   13.161209218   19.308625932
Ag      10.763391348   10.763391349    6.290964103
Ag      10.783070946    8.931585528    4.199039209
Ag       8.931585528   10.783070946    4.199039209
Ag       8.947981277    8.947981278    6.289278399
Ag      10.763297301   10.763297301   10.874518799
Ag      10.725798966    8.988583048    8.583191167
Ag       8.988583048   10.725798966    8.583191167
Ag       8.948088952    8.948088952   10.876221685
Ag      10.783007036    8.931694386   12.965954880
Ag       8.931694387   10.783007036   12.965954880
Ag       8.336663550    8.336663551    3.923994591
Ag       8.171141406   11.539715507    6.417951206
Ag      11.539715507    8.171141406    6.417951206
Ag      11.377847228   11.377847228    3.926395494
Ag       8.245145649    8.245145649    8.583063359
Ag       8.170588925   11.540267458   10.747721326
Ag      11.540267458    8.170588925   10.747721326
Ag      11.469017361   11.469017361    8.583050557
Ag       8.336470037    8.336470037   13.240814514
Ag      11.378081008   11.378081008   13.238397521
Mg       4.369670236    4.369670236   -0.029531694
Mg       4.365372544    6.535584237    2.087856170
Mg       6.535584237    4.365372544    2.087856170
Mg       6.542960310    6.542960311   -0.032758239
Mg       4.350427578    4.350427579    4.221080848
Mg       4.343784589    6.481816038    6.395871085
Mg       6.481816038    4.343784589    6.395871085
Mg       6.461552872    6.461552872    4.245494653
Mg       4.339479369    4.339479369    8.581404408
Mg       4.343800635    6.481784189   10.766936275
Mg       6.481784189    4.343800635   10.766936275
Mg       6.413694596    6.413694596    8.581209985
Mg       4.350437938    4.350437938   12.941867028
Mg       4.365371402    6.535559777   15.075199518
Mg       6.535559777    4.365371402   15.075199518
Mg       6.461585613    6.461585613   12.917439996
Mg       4.369664661    4.369664661   17.192602294
Mg       4.370541900    6.539782512   19.308598615
Mg       6.539782512    4.370541900   19.308598615
Mg       6.542936688    6.542936688   17.196015977
Mg       4.366612008    8.728533330   -0.045121188
Mg       4.383283848   10.940659690    2.063977603
Mg       6.481729308    8.749941851    2.044748429
Mg       6.536895853   10.946251293   -0.061576943
Mg       4.267848576    8.665161339    4.204847920
Mg       4.276817797   10.996289104    6.406212404
Mg       6.295762201    8.696090375    6.391248667
Mg       6.345612994   10.854362960    4.272409910
Mg       4.244667158    8.636565814    8.581401572
Mg       4.276819934   10.996314618   10.756620999
Mg       6.295759617    8.695941081   10.771623215
Mg       6.317262324   10.813220805    8.581463505
Mg       4.267834508    8.665092209   12.958110411
Mg       4.383265427   10.940693556   15.099163411
Mg       6.481484848    8.749991632   15.118749985
Mg       6.345553662   10.854027598   12.890694982
Mg       4.366565333    8.728520842   17.208386315
Mg       4.389883308   10.941391086   19.308663839
Mg       6.514449158    8.736287154   19.308752424
Mg       6.536820988   10.946276420   17.225057851
Mg       4.412930142   13.128843700   -0.024407109
Mg       4.413421178   15.296112752    2.087895059
Mg       6.602067042   13.107689316    2.128537142
Mg       6.580234104   15.296071643   -0.024443334
Mg       4.396048885   13.166727143    4.224115847
Mg       4.375328870   15.335563033    6.397417578
Mg       6.409190150   13.302943617    6.422583725
Mg       6.543311170   15.315306484    4.223991871
Mg       4.383404917   13.179415716    8.581353736
Mg       4.375287316   15.335606804   10.765447818
Mg       6.408931729   13.303211808   10.740080434
Mg       6.531467718   15.328555630    8.581352021
Mg       4.396075506   13.166721025   12.938847503
Mg       4.413431799   15.296100960   15.075106901
Mg       6.602116045   13.107640236   15.034543012
Mg       6.543316048   15.315290081   12.938970328
Mg       4.412937580   13.128854419   17.187528108
Mg       4.411329341   15.297372554   19.308560669
Mg       6.574680111   13.134305439   19.308655114
Mg       6.580219436   15.296061512   17.187563359
Mg       8.728533330    4.366612008   -0.045121188
Mg       8.749941851    6.481729308    2.044748429
Mg      10.940659690    4.383283848    2.063977603
Mg      10.946251293    6.536895853   -0.061576943
Mg       8.665161339    4.267848576    4.204847920
Mg       8.696090375    6.295762201    6.391248667
Mg      10.996289104    4.276817797    6.406212404
Mg      10.854362960    6.345612994    4.272409910
Mg       8.636565814    4.244667158    8.581401572
Mg       8.695941081    6.295759617   10.771623215
Mg      10.996314618    4.276819934   10.756620999
Mg      10.813220805    6.317262324    8.581463505
Mg       8.665092209    4.267834508   12.958110411
Mg       8.749991632    6.481484848   15.118749985
Mg      10.940693556    4.383265427   15.099163411
Mg      10.854027598    6.345553662   12.890694982
Mg       8.728520842    4.366565333   17.208386315
Mg       8.736287154    6.514449158   19.308752424
Mg      10.941391086    4.389883308   19.308663839
Mg      10.946276420    6.536820988   17.225057851
Mg       8.701405888    8.701405888   -0.156566018
Mg       8.777393874   10.929048895    1.792071228
Mg      10.929048895    8.777393874    1.792071228
Mg      11.006782861   11.006782861   -0.155018512
Mg       8.777384381   10.929013221   15.372211300
Mg      10.929013222    8.777384381   15.372211300
Mg       8.701322248    8.701322248   17.320466925
Mg       8.731830356   10.977264244   19.308941271
Mg      10.977264244    8.731830356   19.308941271
Mg      11.006852419   11.006852419   17.318891281
Mg       8.762794657   13.171746425   -0.061063732
Mg       8.768610384   15.327021232    2.064118899
Mg      10.958075242   13.228042833    2.045870545
Mg      10.980506263   15.342206673   -0.044905008
Mg       8.853934144   13.367065517    4.273101835
Mg       8.714335190   15.435550326    6.406378598
Mg      11.013334848   13.416233079    6.391428966
Mg      11.044483918   15.444192452    4.205012758
Mg       8.896649078   13.395291900    8.581460484
Mg       8.714309507   15.435557890   10.756449080
Mg      11.013475796   13.416245343   10.771439016
Mg      11.073848042   15.467952293    8.581397985
Mg       8.854249863   13.367146291   12.889993757
Mg       8.768569308   15.327046771   15.099016460
Mg      10.958004438   13.228292886   15.117610700
Mg      11.044548043   15.444222221   12.957937025
Mg       8.762762350   13.171812201   17.224532640
Mg       8.767725090   15.318574108   19.308660309
Mg      10.972541761   13.193575067   19.308742949
Mg      10.980513237   15.342252301   17.208157964
Mg      13.128843700    4.412930142   -0.024407109
Mg      13.107689316    6.602067043    2.128537142
Mg      15.296112752    4.413421178    2.087895059
Mg      15.296071643    6.580234104   -0.024443334
Mg      13.166727143    4.396048885    4.224115847
Mg      13.302943617    6.409190150    6.422583725
Mg      15.335563033    4.375328871    6.397417578
Mg      15.315306484    6.543311170    4.223991871
Mg      13.179415716    4.383404917    8.581353736
Mg      13.303211808    6.408931729   10.740080434
Mg      15.335606804    4.375287316   10.765447818
Mg      15.328555630    6.531467718    8.581352021
Mg      13.166721025    4.396075506   12.938847503
Mg      13.107640236    6.602116045   15.034543012
Mg      15.296100960    4.413431799   15.075106901
Mg      15.315290081    6.543316048   12.938970328
Mg      13.128854419    4.412937580   17.187528108
Mg      13.134305439    6.574680111   19.308655114
Mg      15.297372554    4.411329341   19.308560670
Mg      15.296061512    6.580219436   17.187563359
Mg      13.171746425    8.762794657   -0.061063732
Mg      13.228042833   10.958075242    2.045870545
Mg      15.327021231    8.768610384    2.064118899
Mg      15.342206673   10.980506263   -0.044905008
Mg      13.367065517    8.853934144    4.273101835
Mg      13.416233079   11.013334848    6.391428966
Mg      15.435550326    8.714335190    6.406378598
Mg      15.444192452   11.044483918    4.205012758
Mg      13.395291900    8.896649078    8.581460484
Mg      13.416245343   11.013475796   10.771439016
Mg      15.435557890    8.714309507   10.756449080
Mg      15.467952293   11.073848042    8.581397985
Mg      13.367146291    8.854249863   12.889993757
Mg      13.228292886   10.958004438   15.117610700
Mg      15.327046771    8.768569308   15.099016460
Mg      15.444222221   11.044548043   12.957937025
Mg      13.171812201    8.762762350   17.224532640
Mg      13.193575067   10.972541761   19.308742949
Mg      15.318574108    8.767725090   19.308660309
Mg      15.342252301   10.980513237   17.208157964
Mg      13.165607398   13.165607398   -0.032048644
Mg      13.173631031   15.344366558    2.088146117
Mg      15.344366558   13.173631031    2.088146117
Mg      15.339157556   15.339157556   -0.029406253
Mg      13.250099836   13.250099836    4.246321965
Mg      13.228719118   15.367679719    6.396041973
Mg      15.367679719   13.228719118    6.396041973
Mg      15.360145276   15.360145276    4.221187699
Mg      13.298464318   13.298464318    8.581209198
Mg      13.228750940   15.367668857   10.766755710
Mg      15.367668857   13.228750940   10.766755710
Mg      15.371811165   15.371811165    8.581399047
Mg      13.250080760   13.250080760   12.916597958
Mg      13.173650764   15.344368423   15.074896668
Mg      15.344368423   13.173650764   15.074896668
Mg      15.360139158   15.360139158   12.941747897
Mg      13.165624366   13.165624366   17.195289847
Mg      13.168967021   15.337903931   19.308591828
Mg      15.337903931   13.168967021   19.308591828
Mg      15.339158976   15.339158976   17.192462825
