         384
   17.1945     -0.0000     -0.0000     -0.0000     17.1945     -0.0000     -0.0001     -0.0001     13.1440
 O       2.130576877    2.130576844    2.173061134
 O       2.112547745   -0.023608502   -0.006162350
 O      -0.023608502    2.112547751   -0.006162348
 O      -0.016010957   -0.016010956    2.179680802
 O       2.111674935    2.111674885    6.590556060
 O       2.093971614   -0.042258039    4.377352817
 O      -0.042258014    2.093971607    4.377352808
 O      -0.024434354   -0.024434384    6.581274968
 O       2.106528873    2.106528832   10.949752392
 O       2.119723010   -0.019544196    8.773404051
 O      -0.019544145    2.119722980    8.773404044
 O      -0.020537123   -0.020537173   10.955449802
 O       2.055277604    6.447861323    2.127059060
 O       2.050202024    4.261176326   -0.043025734
 O      -0.053115088    6.447921268   -0.009938379
 O      -0.056820496    4.271200132    2.139762633
 O       1.755047042    6.448055111    6.585666980
 O       1.850385145    4.276955281    4.395971548
 O      -0.158277797    6.447878111    4.328016437
 O      -0.152444930    4.239824183    6.622661448
 O       2.035419369    6.447883401   11.001673434
 O       2.070613617    4.293779456    8.814566958
 O      -0.087013548    6.447899916    8.835171135
 O      -0.046258199    4.266758821   10.965430995
 O       2.130485886   10.765423472    2.173114250
 O       2.050242446    8.634662499   -0.042953375
 O      -0.023608070   10.783307197   -0.006187077
 O      -0.056822317    8.624628792    2.139730927
 O       2.111514029   10.784122981    6.590373040
 O       1.850231219    8.618797368    4.395691035
 O      -0.042336031   10.801902393    4.377295700
 O      -0.152485279    8.656020199    6.622593311
 O       2.106537936   10.789228050   10.949746179
 O       2.070633063    8.602061784    8.814521662
 O      -0.019549321   10.776056847    8.773372826
 O      -0.046227610    8.629003008   10.965427621
 O       2.116822742   15.045172922    2.177176173
 O       2.112533511   12.919480966   -0.006203632
 O      -0.019889427   15.045157480   -0.003492828
 O      -0.016043269   12.911899240    2.179637956
 O       2.089533273   15.045118534    6.581447474
 O       2.093904034   12.938189562    4.377302892
 O      -0.030774693   15.045177178    4.374985871
 O      -0.024461861   12.920267301    6.581234590
 O       2.114042406   15.045104584   10.957926361
 O       2.119701875   12.915260550    8.773357461
 O      -0.019203578   15.045114938    8.772412352
 O      -0.020536742   12.916291291   10.955414429
 O       6.447861307    2.055277650    2.127059059
 O       6.447921266   -0.053115057   -0.009938371
 O       4.261176297    2.050202021   -0.043025739
 O       4.271200133   -0.056820485    2.139762649
 O       6.448055015    1.755047144    6.585667389
 O       6.447878128   -0.158277649    4.328016551
 O       4.276955295    1.850385051    4.395971741
 O       4.239824193   -0.152445088    6.622661506
 O       6.447883429    2.035419319   11.001673379
 O       6.447899933   -0.087013563    8.835171164
 O       4.293779421    2.070613571    8.814566952
 O       4.266758847   -0.046258260   10.965431002
 O       6.450236966    6.450236289    1.624734279
 O       6.447910423    4.175070290   -0.083144828
 O       4.175070392    6.447910526   -0.083144779
 O       4.283764013    4.283764191    1.766172972
 O       6.448040056    6.448039855   11.079577383
 O       6.448346343    4.318332783    9.257303822
 O       4.318333119    6.448346449    9.257303864
 O       4.196492057    4.196492052   11.024583711
 O       6.447861968   10.840411182    2.127241599
 O       6.447908068    8.721587790   -0.083230955
 O       4.261105483   10.845697686   -0.042935887
 O       4.283015450    8.612246678    1.766947911
 O       6.448052473   11.140828681    6.584466637
 O       4.276915598   11.045868909    4.396029478
 O       6.447883114   10.860444835   11.001702921
 O       6.448337466    8.577674254    9.256834876
 O       4.293831395   10.824985422    8.814430160
 O       4.196536161    8.699312073   11.024783407
 O       6.447912612   15.045143299    2.140275748
 O       6.447921274   12.948941729   -0.009904579
 O       4.268296303   15.045151598   -0.018993921
 O       4.271179471   12.952718477    2.139704380
 O       6.447895142   15.045051888    6.601031805
 O       6.447878579   13.053924891    4.327852064
 O       4.248830458   15.045175567    4.354615233
 O       4.239787108   13.047918966    6.622634451
 O       6.447877536   15.045080559   10.988874867
 O       6.447899675   12.982647050    8.835013749
 O       4.268618859   15.045042118    8.810306773
 O       4.266765913   12.941943677   10.965369360
 O      10.765423442    2.130485918    2.173114279
 O      10.783307187   -0.023608061   -0.006187044
 O       8.634662498    2.050242435   -0.042953429
 O       8.624628789   -0.056822299    2.139730971
 O      10.784123011    2.111513998    6.590373165
 O      10.801902395   -0.042336039    4.377295758
 O       8.618797340    1.850231192    4.395691381
 O       8.656020191   -0.152485475    6.622593408
 O      10.789228093    2.106537897   10.949746172
 O      10.776056883   -0.019549388    8.773372860
 O       8.602061852    2.070632989    8.814521648
 O       8.629003059   -0.046227674   10.965427634
 O      10.840411138    6.447861993    2.127241598
 O      10.845697703    4.261105490   -0.042935942
 O       8.721587896    6.447908182   -0.083231003
 O       8.612246626    4.283015519    1.766947665
 O      11.140828575    6.448052582    6.584467051
 O      11.045868927    4.276915635    4.396029822
 O      10.860444886    6.447883094   11.001702865
 O      10.824985495    4.293831333    8.814430146
 O       8.577674586    6.448337590    9.256834835
 O       8.699312121    4.196536120   11.024783316
 O      10.765513798   10.765513766    2.173165744
 O      10.845658013    8.634732965   -0.042867401
 O       8.634732930   10.845658014   -0.042867396
 O       8.612994359    8.612994550    1.767703313
 O      10.784283469   10.784283419    6.590193601
 O      11.046018485    8.618837196    4.395753335
 O       8.618837203   11.046018378    4.395753139
 O      10.789218430   10.789218391   10.949738552
 O      10.824967788    8.602008219    8.814385908
 O       8.602008177   10.824967743    8.814385916
 O       8.699266456    8.699266457   11.024976754
 O      10.779024256   15.045172568    2.177129723
 O      10.783321117   12.919480360   -0.006228889
 O       8.627547986   15.045151701   -0.019014383
 O       8.624649530   12.952719588    2.139672609
 O      10.806299986   15.045118544    6.581414215
 O      10.801969254   12.938266442    4.377246289
 O       8.646971004   15.045175015    4.354567768
 O       8.656056454   13.047963049    6.622567904
 O      10.781711074   15.045104745   10.957903984
 O      10.776077544   12.915266223    8.773326726
 O       8.627167509   15.045043175    8.810289666
 O       8.628995736   12.941914451   10.965365614
 O      15.045172916    2.116822752    2.177176213
 O      15.045157479   -0.019889420   -0.003492783
 O      12.919480960    2.112533525   -0.006203600
 O      12.911899233   -0.016043259    2.179638000
 O      15.045118594    2.089533261    6.581447508
 O      15.045177187   -0.030774696    4.374985912
 O      12.938189566    2.093904034    4.377302951
 O      12.920267326   -0.024461885    6.581234636
 O      15.045104635    2.114042367   10.957926396
 O      15.045115006   -0.019203616    8.772412383
 O      12.915260618    2.119701839    8.773357494
 O      12.916291333   -0.020536780   10.955414456
 O      15.045143221    6.447912602    2.140275768
 O      15.045151592    4.268296310   -0.018993875
 O      12.948941698    6.447921280   -0.009904572
 O      12.952718457    4.271179477    2.139704422
 O      15.045051920    6.447894960    6.601031824
 O      15.045175567    4.248830450    4.354615258
 O      13.053924743    6.447878564    4.327852178
 O      13.047919156    4.239787124    6.622634547
 O      15.045080586    6.447877506   10.988874886
 O      15.045042214    4.268618834    8.810306792
 O      12.982647065    6.447899661    8.835013777
 O      12.941943741    4.266765866   10.965369376
 O      15.045172562   10.779024265    2.177129722
 O      15.045151700    8.627547993   -0.019014389
 O      12.919480358   10.783321127   -0.006228891
 O      12.952719581    8.624649532    2.139672627
 O      15.045118611   10.806299973    6.581414221
 O      15.045175022    8.646970996    4.354567783
 O      12.938266471   10.801969250    4.377246297
 O      13.047963212    8.656056450    6.622567965
 O      15.045104797   10.781711035   10.957903988
 O      15.045043276    8.627167484    8.810289686
 O      12.915266274   10.776077514    8.773326734
 O      12.941914514    8.628995715   10.965365618
 O      15.045164930   15.045164934    2.179497988
 O      15.045157329   12.915744120   -0.003537977
 O      12.915744113   15.045157334   -0.003537972
 O      12.911930892   12.911930896    2.179595149
 O      15.045141247   15.045141226    6.579417474
 O      15.045176828   12.926655500    4.374944134
 O      12.926655504   15.045176819    4.374944134
 O      12.920294166   12.920294137    6.581194598
 O      15.045106186   15.045106085   10.957162653
 O      15.045114574   12.914981665    8.772385159
 O      12.914981704   15.045114594    8.772385151
 O      12.916290708   12.916290661   10.955378872
Ag       4.049000898    4.049000499    3.813524080
Ag       6.448876990    6.448877854    6.396153214
Ag       3.933286904    6.446033368    7.248203815
Ag       6.446034387    3.933287747    7.248203521
Ag       6.445429524    6.445430803    3.610197946
Ag       6.448613268    4.257203426    4.743102947
Ag       4.257202585    6.448612719    4.743103283
Ag       4.207281635    4.207280992    6.248386565
Ag       4.048730908    8.848487658    3.814784304
Ag       6.446068138    8.964768642    7.247542138
Ag       6.448613870    8.636149839    4.741764828
Ag       4.207474760    8.686290471    6.249912930
Ag       8.848487978    4.048730572    3.814783714
Ag       8.964767794    6.446067100    7.247541847
Ag       8.636149000    6.448613302    4.741764498
Ag       8.686291434    4.207473779    6.249912218
Ag       8.848748014    8.848747590    3.816009096
Ag       8.686137262    8.686136604    6.251388725
Mg      -0.019405687   -0.019405684   -0.003455350
Mg      -0.018680382    2.115033087    2.179729097
Mg       2.115033086   -0.018680392    2.179729100
Mg       2.107454970    2.107454982   -0.016680702
Mg      -0.024573983   -0.024573993    4.371668526
Mg      -0.047286550    2.090816590    6.580260774
Mg       2.090816594   -0.047286624    6.580260780
Mg       2.112321002    2.112320964    4.403888495
Mg      -0.016214577   -0.016214618    8.775266604
Mg      -0.021680502    2.109269446   10.955745583
Mg       2.109269481   -0.021680546   10.955745587
Mg       2.130813723    2.130813710    8.759856728
Mg      -0.047551400    4.262984449   -0.022632647
Mg      -0.068567098    6.447945608    2.135909154
Mg       2.045304413    4.289344583    2.082680910
Mg       2.053754564    6.448004436   -0.030550055
Mg      -0.132036772    4.241826125    4.326240830
Mg      -0.189736910    6.447955367    6.618811826
Mg       1.804775199    4.337234337    6.593719606
Mg       1.824142620    6.447842537    4.362930798
Mg      -0.068352143    4.261904827    8.822026354
Mg      -0.062689565    6.447913608   10.996455679
Mg       2.062373183    4.257333421   10.980567363
Mg       1.976456753    6.448112218    8.914067036
Mg      -0.047499966    8.632887634   -0.022598687
Mg      -0.018695293   10.780821201    2.179653270
Mg       2.045493442    8.606543790    2.082889253
Mg       2.107488009   10.788355853   -0.016639339
Mg      -0.132106093    8.653980986    4.326134223
Mg      -0.047350044   10.805035816    6.580245625
Mg       1.804735256    8.558866844    6.593364856
Mg       2.111972033   10.783829774    4.403746413
Mg      -0.068321186    8.633933516    8.821990173
Mg      -0.021652656   10.786480359   10.955725199
Mg       2.062480214    8.638515730   10.980683459
Mg       2.130890520   10.764883790    8.759791661
Mg      -0.019393978   12.915248720   -0.003495718
Mg      -0.018604549   15.045158625    2.179476848
Mg       2.115029647   12.914564392    2.179676489
Mg       2.110510598   15.045145619   -0.005573722
Mg      -0.024631251   12.920487048    4.371616453
Mg      -0.029050194   15.045128127    6.579393343
Mg       2.090820318   12.943040646    6.580221103
Mg       2.086907453   15.045156711    4.371549637
Mg      -0.016207170   12.911964867    8.775239183
Mg      -0.020239018   15.045093332   10.957229496
Mg       2.109297061   12.917387798   10.955706126
Mg       2.109970700   15.045074385    8.778944628
Mg       4.262984446   -0.047551410   -0.022632656
Mg       4.289344610    2.045304358    2.082680818
Mg       6.447945594   -0.068567012    2.135909228
Mg       6.448004418    2.053754597   -0.030550085
Mg       4.241826148   -0.132036801    4.326240850
Mg       4.337234296    1.804774933    6.593719847
Mg       6.447955326   -0.189736918    6.618811853
Mg       6.447842490    1.824142943    4.362931076
Mg       4.261904860   -0.068352238    8.822026418
Mg       4.257333478    2.062373136   10.980567356
Mg       6.447913637   -0.062689562   10.996455644
Mg       6.448112150    1.976456934    8.914066809
Mg       4.217682533    4.217682485   -0.141865382
Mg       4.243076966    6.448307312    1.920957983
Mg       6.448307354    4.243077200    1.920957937
Mg       6.447045912    6.447046207   -0.195982578
Mg       4.278070503    4.278070346    9.019700834
Mg       4.204429298    6.448000040   11.130888002
Mg       6.448000098    4.204429318   11.130887990
Mg       6.448083457    6.448083360    9.110873292
Mg       4.218148559    8.678230815   -0.141467548
Mg       4.289382048   10.850577396    2.082593094
Mg       6.448305605    8.652048319    1.920919253
Mg       6.448003663   10.842075485   -0.030510720
Mg       4.336856041   11.090357552    6.592861407
Mg       6.447843640   11.071017860    4.363087988
Mg       4.278164722    8.617401579    9.019791387
Mg       4.257344873   10.833282141   10.980633436
Mg       6.447997488    8.691066380   11.130776624
Mg       6.448107201   10.919377061    8.914622396
Mg       4.262982739   12.943386510   -0.022638273
Mg       4.265008646   15.045153565    2.137133264
Mg       6.447945167   12.964287437    2.136030609
Mg       6.447941253   15.045119451   -0.009803537
Mg       4.241942123   13.027998404    4.326149112
Mg       4.231790214   15.044995313    6.605351872
Mg       6.447952558   13.085372330    6.618700555
Mg       6.447885238   15.045072174    4.330463896
Mg       4.261896556   12.963873908    8.821792370
Mg       4.263019603   15.045045652   10.971622180
Mg       6.447912913   12.958432776   10.996482564
Mg       6.447913937   15.045036080    8.836870420
Mg       8.632887615   -0.047499978   -0.022598700
Mg       8.606543718    2.045493383    2.082889081
Mg      10.780821199   -0.018695275    2.179653315
Mg      10.788355840    2.107488025   -0.016639361
Mg       8.653980964   -0.132106083    4.326134276
Mg       8.558866671    1.804734895    6.593365233
Mg      10.805035834   -0.047350112    6.580245678
Mg      10.783829788    2.111972018    4.403746588
Mg       8.633933512   -0.068321307    8.821990269
Mg       8.638515725    2.062480143   10.980683432
Mg      10.786480405   -0.021652709   10.955725229
Mg      10.764883881    2.130890431    8.759791704
Mg       8.678230754    4.218148623   -0.141467689
Mg       8.652048100    6.448305571    1.920919208
Mg      10.850577452    4.289382125    2.082592925
Mg      10.842075455    6.448003684   -0.030510753
Mg      11.090357901    4.336856224    6.592861781
Mg      11.071017538    6.447843699    4.363088265
Mg       8.617401762    4.278164541    9.019791337
Mg       8.691066362    6.447997433   11.130776612
Mg      10.833282214    4.257344884   10.980633408
Mg      10.919376880    6.448107279    8.914622167
Mg       8.677765095    8.677765049   -0.141080742
Mg       8.606506193   10.850390993    2.082795632
Mg      10.850391055    8.606506175    2.082795534
Mg      10.788322923   10.788322938   -0.016599808
Mg       8.559235722   11.090407403    6.592521598
Mg      11.090407678    8.559235774    6.592521842
Mg      10.784175490   10.784175451    4.403606900
Mg       8.617314354    8.617314204    9.019880714
Mg       8.638502410   10.833177395   10.980747978
Mg      10.833177440    8.638502357   10.980747970
Mg      10.764809121   10.764809110    8.759727396
Mg       8.632888892   12.943336021   -0.022605688
Mg       8.630839459   15.045153270    2.137078858
Mg      10.780824613   12.914578803    2.179600897
Mg      10.785335351   15.045145681   -0.005617174
Mg       8.653864925   13.028065775    4.326043857
Mg       8.664048658   15.044996410    6.605318174
Mg      10.805031573   12.943104181    6.580206124
Mg      10.808950101   15.045156395    4.371492477
Mg       8.633940517   12.963846315    8.821758722
Mg       8.632757797   15.045046541   10.971621194
Mg      10.786452780   12.917360552   10.955685754
Mg      10.785809817   15.045074773    8.778941856
Mg      12.915248715   -0.019393970   -0.003495682
Mg      12.914564374    2.115029652    2.179676534
Mg      15.045158625   -0.018604546    2.179476887
Mg      15.045145617    2.110510604   -0.005573686
Mg      12.920487057   -0.024631260    4.371616498
Mg      12.943040709    2.090820302    6.580221157
Mg      15.045128162   -0.029050215    6.579393382
Mg      15.045156723    2.086907452    4.371549678
Mg      12.911964917   -0.016207215    8.775239220
Mg      12.917387852    2.109297017   10.955706155
Mg      15.045093378   -0.020239067   10.957229534
Mg      15.045074443    2.109970671    8.778944661
Mg      12.943386522    4.262982760   -0.022638286
Mg      12.964287352    6.447945182    2.136030682
Mg      15.045153554    4.265008644    2.137133298
Mg      15.045119399    6.447941264   -0.009803517
Mg      13.027998387    4.241942148    4.326149166
Mg      13.085372337    6.447952604    6.618700583
Mg      15.044995443    4.231790213    6.605351901
Mg      15.045072077    6.447885224    4.330463916
Mg      12.963874025    4.261896563    8.821792465
Mg      12.958432773    6.447912886   10.996482527
Mg      15.045045726    4.263019568   10.971622207
Mg      15.045036107    6.447913916    8.836870439
Mg      12.943336032    8.632888899   -0.022605698
Mg      12.914578813   10.780824616    2.179600899
Mg      15.045153262    8.630839457    2.137078863
Mg      15.045145676   10.785335357   -0.005617171
Mg      13.028065813    8.653864905    4.326043876
Mg      12.943104261   10.805031570    6.580206129
Mg      15.044996546    8.664048656    6.605318185
Mg      15.045156411   10.808950100    4.371492476
Mg      12.963846412    8.633940488    8.821758786
Mg      12.917360594   10.786452747   10.955685758
Mg      15.045046615    8.632757761   10.971621206
Mg      15.045074834   10.785809788    8.778941863
Mg      12.915236875   12.915236881   -0.003536101
Mg      12.914462238   15.045158460    2.179419780
Mg      15.045158459   12.914462241    2.179419781
Mg      15.045148286   15.045148291   -0.003336797
Mg      12.920543508   12.920543496    4.371564618
Mg      12.924878578   15.045127992    6.579366531
Mg      15.045128031   12.924878557    6.579366532
Mg      15.045172236   15.045172227    4.372147166
Mg      12.911957687   12.911957650    8.775211792
Mg      12.915982884   15.045093374   10.957198863
Mg      15.045093419   12.915982834   10.957198864
Mg      15.045108814   15.045108775    8.774763584
